/*--------------------------------*- C++ -*----------------------------------*\
  =========                 |
  \\      /  F ield         | OpenFOAM: The Open Source CFD Toolbox
   \\    /   O peration     | Website:  https://openfoam.org
    \\  /    A nd           | Version:  7
     \\/     M anipulation  |
\*---------------------------------------------------------------------------*/
FoamFile
{
    version     2.0;
    format      ascii;
    class       dictionary;
    location    "system";
    object      fvSolution;
}
// * * * * * * * * * * * * * * * * * * * * * * * * * * * * * * * * * * * * * //

solvers
{
    "alpha.water.*"
    {
        nAlphaCorr      2;
        nAlphaSubCycles 1;
        cAlpha          1;
        icAlpha         0;

        MULESCorr       yes;
        nLimiterIter    3;
        alphaApplyPrevCorr yes;

        solver          smoothSolver;
        smoother        symGaussSeidel;
        tolerance       1e-8;
        relTol          0;
        minIter         1;
    }

    pcorr
    {
        solver          GAMG;
        smoother        DIC;
        tolerance       1e-4;
        relTol          0.01;
    }

    pcorrFinal
    {
        $pcorr;
        relTol          0;
    };


    p_rgh
    {
        solver          GAMG;
        smoother        DIC;
        tolerance       1e-7;
        relTol          0.001;
    }

    p_rghFinal
    {
        $p_rgh;
        relTol          0;
    }

    "(U|k|omega).*"
    {
        solver          smoothSolver;

        smoother        symGaussSeidel;
        nSweeps         1;

        tolerance       1e-5;
        relTol          0;
        minIter         1;
    };
}

PIMPLE
{
    momentumPredictor no;
    nOuterCorrectors 3;
    nCorrectors      10;
    nNonOrthogonalCorrectors 1;

    correctPhi      yes;
    moveMeshOuterCorrectors yes;
    turbOnFinalIterOnly yes;
}

relaxationFactors
{
    equations
    {
        ".*" 1;
    }
}

cache
{
    grad(U);
}

// ************************************************************************* //
