/*--------------------------------*- C++ -*----------------------------------*\
  =========                 |
  \\      /  F ield         | OpenFOAM: The Open Source CFD Toolbox
   \\    /   O peration     | Website:  https://openfoam.org
    \\  /    A nd           | Version:  7
     \\/     M anipulation  |
\*---------------------------------------------------------------------------*/
FoamFile
{
    version     2.0;
    format      ascii;
    class       dictionary;
    location    "system";
    object      topoSetDict;
}
// * * * * * * * * * * * * * * * * * * * * * * * * * * * * * * * * * * * * * //

#include        "$FOAM_CASE/constant/dynamicMeshDict";
Pc1              #calc "$Pm-0.1";
Pc2              #calc "$Pm+0.1";

actions
(
    {
        name    c2;
        type    cellSet;
        action  new;
        source  boxToCell;
        sourceInfo
        {
            box ($Pc1 0.229 0.54) ($Pc2 0.271 0.66);
        }
     }
);

// ************************************************************************* //
